LTspice 24.1.7 for Windows
Circuit: C:\Users\Teong Yee Xun\Documents\LTspiceXVII\ECE4063\Project\Task1.net
Start Time: Thu May  1 23:16:18 2025
solver = Normal
Maximum thread count: 12
tnom = 27
temp = 27
method = modified trap
Direct Newton iteration for .op point succeeded.
Total elapsed time: 0.377 seconds.

Files loaded:
C:\Users\Teong Yee Xun\Documents\LTspiceXVII\ECE4063\Project\Task1.net

