Circuit: * D:\YeeXun\ECE4063\4063proj\LTSpice\VoltageSourceWithNoise.asc

WARNING: Less than two connections to node VQUANTISED.  This node is used by B1.
Direct Newton iteration for .op point succeeded.

Date: Wed May 28 12:58:25 2025
Total elapsed time: 0.080 seconds.

tnom = 27
temp = 27
method = modified trap
totiter = 2551
traniter = 2547
tranpoints = 1018
accept = 1018
rejected = 0
matrix size = 6
fillins = 0
solver = Normal
Matrix Compiler1:       7 opcodes  0.1/[0.1]/0.1
Matrix Compiler2:      28 opcodes  0.1/[0.1]/0.2

