Circuit: * D:\YeeXun\ECE4063\4063proj\LTSpice\VoltageSourceWithNoise.asc

WARNING: Less than two connections to node VQUANTISED.  This node is used by B1.
Direct Newton iteration for .op point succeeded.

Date: Thu May 15 15:36:47 2025
Total elapsed time: 0.046 seconds.

tnom = 27
temp = 27
method = modified trap
totiter = 2551
traniter = 2547
tranpoints = 1018
accept = 1018
rejected = 0
matrix size = 6
fillins = 0
solver = Normal
Matrix Compiler1: off  [0.0]/0.0/0.0
Matrix Compiler2: 306 bytes object code size  0.0/0.0/[0.0]

